attach ./gnucap-coupling.so

options trace

verilog

from_file0 #(.iv(3), .filename(get2)) get2(1 0);

list

spice

.print tran v(1)
.tran 0 5 trace=a
.end
